/*--------------------------------*- C++ -*----------------------------------*\
  =========                 |
  \\      /  F ield         | OpenFOAM: The Open Source CFD Toolbox
   \\    /   O peration     | Website:  https://openfoam.org
    \\  /    A nd           | Version:  7
     \\/     M anipulation  |
\*---------------------------------------------------------------------------*/
FoamFile
{
    version     2.0;
    format      ascii;
    class       dictionary;
    object      snappyHexMeshDict;
}

// Which of the steps to run
castellatedMesh true;		// Only break the mesh into approx. voxels
snap            true;		// Snap the points to the geometry after approx. voxel
addLayers       false;		// Add boundary layer mesh close to the wall


// Geometry details and refinement
geometry
{
    refinementBox
    {
        type searchableBox;
        min (-130 -400 0);
        max (400 300 25);
    }

    buildings
    {
        file "buildings.stl";
        type triSurfaceMesh;
    }
};


// Settings for the castellatedMesh generation.
castellatedMeshControls
{

    maxLocalCells 20000000;
    maxGlobalCells 200000000;
    minRefinementCells 0;
    maxLoadUnbalance 0.10;
    nCellsBetweenLevels 4;

    // This is feature edges for the geometry at hand
    features
    (
	{
   	    	file "buildings.eMesh";
            	level 5;
	}
    );

    refinementSurfaces
    {
        buildings
        {
            // Surface-wise min and max refinement level
            level (5 5);

            patchInfo
            {
                type wall;
            }
        }
    }


    resolveFeatureAngle 30;	// Any angle greater than 30 degrees will be refined and resolved

    refinementRegions
    {
        refinementBox
        {
            mode inside;
            levels ((1E15 2));
        }

        // Extra refinment for buildings
        buildings
        {
            mode distance;
            levels ((4.0 5) (12.0 4) (25.0 3));
        }
    }

    locationInMesh (0 0 10);
    allowFreeStandingZoneFaces true;
}

// Settings for the snapping.
snapControls
{
    nSmoothPatch 5;
    tolerance 4.0;
    nSolveIter 50;
    nRelaxIter 15;
    nFeatureSnapIter 15;
    implicitFeatureSnap false;
    explicitFeatureSnap true;
    multiRegionFeatureSnap false;
}

// Settings for the layer addition.
addLayersControls
{
    relativeSizes true;
    expansionRatio 1.2;
    firstLayerThickness 0.4;
    minThickness 0.4;
    layers
    {
        buildings
        {
            nSurfaceLayers 4;

        }
    }

    nGrow 0;
    featureAngle 130;
    maxFaceThicknessRatio 0.5;
    nSmoothSurfaceNormals 1;
    nSmoothThickness 10;
    minMedialAxisAngle 90;
    maxThicknessToMedialRatio 0.3;
    nSmoothNormals 3;
    slipFeatureAngle 30;
    nRelaxIter 5;
    nBufferCellsNoExtrude 0;
    nLayerIter 50;
    nRelaxedIter 20;
}


// Generic mesh quality settings. At any undoable phase these determine
// where to undo.
meshQualityControls
{
    maxNonOrtho 65;
    maxBoundarySkewness 5;
    maxInternalSkewness 4;
    maxConcave 80;
    minVol 1e-13;
    minTetQuality 1e-30;
    minArea -1;
    minTwist 0.05;
    minDeterminant 0.001;
    minFaceWeight 0.05;
    minVolRatio 0.01;
    minTriangleTwist -1;
    minVolCollapseRatio 0.5;
    nSmoothScale 4;
    errorReduction 0.75;
    relaxed
    {
        maxNonOrtho 75;
    }
}


// Advanced
mergeTolerance 1e-6;


// ************************************************************************* //