/*--------------------------------*- C++ -*----------------------------------*\
| =========                 |                                                 |
| \\      /  F ield         | OpenFOAM: The Open Source CFD Toolbox           |
|  \\    /   O peration     | Version:  v2412                                 |
|   \\  /    A nd           | Website:  www.openfoam.com                      |
|    \\/     M anipulation  |                                                 |
\*---------------------------------------------------------------------------*/
FoamFile
{
    version     2.0;
    format      ascii;
    class       dictionary;
    object      snappyHexMeshDict;
}

// * * * * * * * * * * * * * * * * * * * * * * * * * * * * * * * * * * * * * //
/*----------------- Bounding Box ------------------*/
//Overall domain bounding box (-195 -195 0) (195 195 40)
//Geometry extension (-86.58 -98.9042 0) (85.9732 99.2287 4)
x_min -90;
y_min -100;
z_min  0;
x_max  90;
y_max  100;
z_max  4;  //approximately tallest building
//K 1.0;

//ip: a minor change to work with building height, not zmax
K #calc "($z_max - $z_min)/$z_max";
F 0.3; // just a factor to reduce some things

// box refinement definition from closest to the buildings to furthest
// box 1
x1_min #calc "$x_min - $K*$z_max";
x1_max #calc "$x_max + $K*$z_max";
y1_min #calc "$y_min - $K*$z_max";
y1_max #calc "$y_max + 3*$K*$z_max";
z1_min $z_min;
z1_max #calc "$z_max + $F*$K*$z_max";

// box 2
x2_min #calc "$x_min - 2*$K*$z_max";
x2_max #calc "$x_max + 2*$K*$z_max";
y2_min #calc "$y_min - 2*$K*$z_max";
y2_max #calc "$y_max + 6*$K*$z_max";
z2_min $z_min;
z2_max #calc "$z_max + 1.2*$K*$z_max";

// box 3
x3_min -195;
x3_max 195;
y3_min -195;
y3_max 195;
z3_min 0;
z3_max 2;




// Which of the steps to run
castellatedMesh true;
snap            false;
addLayers       false;


// Geometry. Definition of all surfaces. All surfaces are of class
// searchableSurface.
// Surfaces are used
// - to specify refinement for any mesh cell intersecting it
// - to specify refinement for any mesh cell inside/outside/near
// - to 'snap' the mesh boundary to the surface
geometry
{
    box1
    {
        type searchableBox;
        min ($x1_min $y1_min $z1_min);
        max ($x1_max $y1_max $z1_max);
    }

    box2
    {
        type searchableBox;
        min ($x2_min $y2_min $z2_min);
        max ($x2_max $y2_max $z2_max);
    }

    box3
    {
        type searchableBox;
        min ($x3_min $y3_min $z3_min);
        max ($x3_max $y3_max $z3_max);
    }

    Buildings
    {
        file "MUST.stl";
        type triSurfaceMesh;
    }
    
    Car
    {
        file "car.stl";
        type triSurfaceMesh;
    }

    Building_Refinement
    {
        file "MUST.stl";
        type triSurfaceMesh;
    }

    Car_Refinement
    {
        file "car.stl";
        type triSurfaceMesh;
    }
};


// Settings for the castellatedMesh generation.
castellatedMeshControls
{

    maxLocalCells 20000000;
    maxGlobalCells 70000000;
    minRefinementCells 0;
    maxLoadUnbalance 0.10;
    nCellsBetweenLevels 4;
    features
    (
	{
   	    file "MUST.eMesh";
            level 3;
	}
	
	{
   	    file "car.eMesh";
            level 3;
	}

    );

    refinementSurfaces
    {
        Buildings
        {
            level (3 3);
        }

	Car
        {
            level (3 3);
        }
    }

    resolveFeatureAngle 30;

    refinementRegions
    {
        box1
        {
            mode inside;
            levels ((1E15 2));
        }

        box2
        {
            mode inside;
            levels ((1E15 1));
        }

        box3
        {
            mode inside;
            levels ((1E15 3));
        }

	// Extra refinment for buildings
	Building_Refinement
	{
           mode distance;
           levels ((4.0 3) (12.0 2) (25.0 1));
	}

	Car_Refinement
	{
           mode distance;
           levels ((4.0 3) (12.0 2) (25.0 1));
	}

    }

    locationInMesh (0.1 0.1 10.2345);
    allowFreeStandingZoneFaces true;
}

// Settings for the snapping.
snapControls
{
    nSmoothPatch 1;
    tolerance 4.0;
    nSolveIter 50;
    nRelaxIter 5;
    nFeatureSnapIter 10;
    implicitFeatureSnap false;
    explicitFeatureSnap true;
    multiRegionFeatureSnap false;
}

// Settings for the layer addition.
addLayersControls
{
    relativeSizes true;
    expansionRatio 1.2;
    firstLayerThickness 0.4;
    minThickness 0.4;
    layers
    {
        Buildings
        {
            nSurfaceLayers 3;

        }
    }

    nGrow 0;
    featureAngle 130;
    maxFaceThicknessRatio 0.5;
    nSmoothSurfaceNormals 1;
    nSmoothThickness 10;
    minMedialAxisAngle 90;
    maxThicknessToMedialRatio 0.3;
    nSmoothNormals 3;
    slipFeatureAngle 30;
    nRelaxIter 5;
    nBufferCellsNoExtrude 0;
    nLayerIter 50;
    nRelaxedIter 20;
}


// Generic mesh quality settings. At any undoable phase these determine
// where to undo.
meshQualityControls
{
    maxNonOrtho 65;
    maxBoundarySkewness 5;
    maxInternalSkewness 4;
    maxConcave 80;
    minVol 1e-13;
    minTetQuality 1e-30;
    minArea -1;
    minTwist 0.05;
    minDeterminant 0.001;
    minFaceWeight 0.05;
    minVolRatio 0.01;
    minTriangleTwist -1;
    // minVolCollapseRatio 0.5;
    nSmoothScale 4;
    errorReduction 0.75;
    relaxed
    {
        maxNonOrtho 75;
    }
}


// Advanced
mergeTolerance 1e-6;


// ************************************************************************* //
