/*--------------------------------*- C++ -*----------------------------------*\
| =========                 |                                                 |
| \\      /  F ield         | OpenFOAM: The Open Source CFD Toolbox           |
|  \\    /   O peration     | Version:  v2412                                 |
|   \\  /    A nd           | Website:  www.openfoam.com                      |
|    \\/     M anipulation  |                                                 |
\*---------------------------------------------------------------------------*/
FoamFile
{
    version     2.0;
    format      ascii;
    class       volScalarField;
    object      epsilon;
}
// * * * * * * * * * * * * * * * * * * * * * * * * * * * * * * * * * * * * * //

#include        "include/ABLConditions"
dimensions      [0 2 -3 0 0 0 0];

internalField   uniform $epsilonInlet;

boundaryField
{
    inletOutlet
    {
        type            inletOutlet;
        inletValue      uniform $epsilonInlet;
        value           uniform $epsilonInlet;
    }
    top
    {
        type            inletOutlet;
        inletValue      uniform $epsilonInlet;
        value           uniform $epsilonInlet;
    }
    Buildings
    {
        type            epsilonWallFunction;
        value           uniform $epsilonInlet;
    }
    Buildings
    {
        type            epsilonWallFunction;
        value           uniform $epsilonInlet;
    }

    Car
    {
        type            epsilonWallFunction;
        value           uniform $epsilonInlet;
    }
    Terrain
    {
        type            atmEpsilonWallFunction;
        z0              $z0;
        value           $internalField;
    }
}


// ************************************************************************* //
